<?xml version="1.0" encoding="UTF-8"?>

<!-- generated on 2026-02-27 12:30:16 by Eclipse SUMO netconvert Version 1.24.0
<netconvertConfiguration xmlns:xsi="http://www.w3.org/2001/XMLSchema-instance" xsi:noNamespaceSchemaLocation="http://sumo.dlr.de/xsd/netconvertConfiguration.xsd">

    <input>
        <osm-files value="C:\Users\USER\Desktop\road_network_project\signal_phase-1\projects\XKeNCAgSG4kknN8yQy2a\osm\map.osm.xml"/>
    </input>

    <output>
        <output-file value="C:\Users\USER\Desktop\road_network_project\signal_phase-1\projects\XKeNCAgSG4kknN8yQy2a\sumo\network.net.xml"/>
    </output>

    <projection>
        <proj.utm value="true"/>
    </projection>

    <processing>
        <geometry.remove value="true"/>
        <roundabouts.guess value="true"/>
    </processing>

    <tls_building>
        <tls.guess value="true"/>
        <tls.default-type value="static"/>
    </tls_building>

    <ramp_guessing>
        <ramps.guess value="true"/>
    </ramp_guessing>

    <junctions>
        <junctions.join value="true"/>
    </junctions>

    <report>
        <verbose value="true"/>
    </report>

</netconvertConfiguration>
-->

<net version="1.20" junctionCornerDetail="5" limitTurnSpeed="5.50" xmlns:xsi="http://www.w3.org/2001/XMLSchema-instance" xsi:noNamespaceSchemaLocation="http://sumo.dlr.de/xsd/net_file.xsd">

    <location netOffset="-714935.46,-941582.24" convBoundary="0.00,0.00,2704.25,5600.76" origBoundary="76.952841,8.513160,76.977258,8.563888" projParameter="+proj=utm +zone=43 +ellps=WGS84 +datum=WGS84 +units=m +no_defs"/>

    <type id="highway.footway" priority="1" numLanes="1" speed="2.78" allow="pedestrian" oneway="1" width="2.00"/>
    <type id="highway.living_street" priority="2" numLanes="1" speed="2.78" disallow="tram rail_urban rail rail_electric rail_fast ship container cable_car subway aircraft wheelchair scooter drone" oneway="0"/>
    <type id="highway.path" priority="1" numLanes="1" speed="5.56" allow="pedestrian bicycle" oneway="0" width="2.00"/>
    <type id="highway.primary" priority="12" numLanes="2" speed="27.78" disallow="tram rail_urban rail rail_electric rail_fast ship container cable_car subway aircraft wheelchair scooter drone" oneway="0"/>
    <type id="highway.residential" priority="3" numLanes="1" speed="13.89" disallow="tram rail_urban rail rail_electric rail_fast ship container cable_car subway aircraft wheelchair scooter drone" oneway="0"/>
    <type id="highway.secondary" priority="11" numLanes="1" speed="27.78" disallow="tram rail_urban rail rail_electric rail_fast ship container cable_car subway aircraft wheelchair scooter drone" oneway="0"/>
    <type id="highway.service" priority="1" numLanes="1" speed="5.56" allow="pedestrian delivery bicycle" oneway="0"/>
    <type id="highway.steps" priority="1" numLanes="1" speed="1.39" allow="pedestrian" oneway="1" width="2.00"/>
    <type id="highway.tertiary" priority="10" numLanes="1" speed="22.22" disallow="tram rail_urban rail rail_electric rail_fast ship container cable_car subway aircraft wheelchair scooter drone" oneway="0"/>
    <type id="highway.unclassified" priority="4" numLanes="1" speed="13.89" disallow="tram rail_urban rail rail_electric rail_fast ship container cable_car subway aircraft wheelchair scooter drone" oneway="0"/>

    <edge id=":10244541228_0" function="internal">
        <lane id=":10244541228_0_0" index="0" disallow="tram rail_urban rail rail_electric rail_fast ship container cable_car subway aircraft wheelchair scooter drone" speed="22.22" length="14.02" shape="1959.15,2643.76 1945.51,2647.01"/>
    </edge>
    <edge id=":10244541228_1" function="internal">
        <lane id=":10244541228_1_0" index="0" disallow="tram rail_urban rail rail_electric rail_fast ship container cable_car subway aircraft wheelchair scooter drone" speed="7.91" length="3.99" shape="1959.15,2643.76 1955.17,2644.01"/>
    </edge>
    <edge id=":10244541228_2" function="internal">
        <lane id=":10244541228_2_0" index="0" disallow="tram rail_urban rail rail_electric rail_fast ship container cable_car subway aircraft wheelchair scooter drone" speed="3.65" length="1.44" shape="1959.15,2643.76 1957.82,2643.21"/>
    </edge>
    <edge id=":10244541228_9" function="internal">
        <lane id=":10244541228_9_0" index="0" disallow="tram rail_urban rail rail_electric rail_fast ship container cable_car subway aircraft wheelchair scooter drone" speed="7.91" length="10.34" shape="1955.17,2644.01 1955.06,2644.01 1951.96,2642.97 1949.85,2640.62 1948.71,2636.99"/>
    </edge>
    <edge id=":10244541228_10" function="internal">
        <lane id=":10244541228_10_0" index="0" disallow="tram rail_urban rail rail_electric rail_fast ship container cable_car subway aircraft wheelchair scooter drone" speed="3.65" length="3.23" shape="1957.82,2643.21 1957.27,2642.50 1957.51,2641.64 1958.53,2640.62"/>
    </edge>
    <edge id=":10244541228_3" function="internal">
        <lane id=":10244541228_3_0" index="0" disallow="tram rail_urban rail rail_electric rail_fast ship container cable_car subway aircraft wheelchair scooter drone" speed="6.50" length="9.31" shape="1951.82,2636.12 1952.56,2638.52 1953.92,2640.07 1955.91,2640.77 1958.53,2640.62"/>
    </edge>
    <edge id=":10244541228_4" function="internal">
        <lane id=":10244541228_4_0" index="0" disallow="tram rail_urban rail rail_electric rail_fast ship container cable_car subway aircraft wheelchair scooter drone" speed="8.32" length="13.98" shape="1951.82,2636.12 1951.92,2640.08 1950.90,2643.22 1948.76,2645.53 1945.51,2647.01"/>
    </edge>
    <edge id=":10244541228_5" function="internal">
        <lane id=":10244541228_5_0" index="0" disallow="tram rail_urban rail rail_electric rail_fast ship container cable_car subway aircraft wheelchair scooter drone" speed="3.66" length="4.71" shape="1951.82,2636.12 1951.37,2637.50 1950.70,2638.11 1949.82,2637.93 1948.71,2636.99"/>
    </edge>
    <edge id=":10244541228_6" function="internal">
        <lane id=":10244541228_6_0" index="0" disallow="tram rail_urban rail rail_electric rail_fast ship container cable_car subway aircraft wheelchair scooter drone" speed="6.77" length="8.94" shape="1944.65,2643.93 1946.74,2642.98 1948.11,2641.51 1948.77,2639.51 1948.71,2636.99"/>
    </edge>
    <edge id=":10244541228_7" function="internal">
        <lane id=":10244541228_7_0" index="0" disallow="tram rail_urban rail rail_electric rail_fast ship container cable_car subway aircraft wheelchair scooter drone" speed="22.22" length="14.27" shape="1944.65,2643.93 1958.53,2640.62"/>
    </edge>
    <edge id=":10244541228_8" function="internal">
        <lane id=":10244541228_8_0" index="0" disallow="tram rail_urban rail rail_electric rail_fast ship container cable_car subway aircraft wheelchair scooter drone" speed="3.65" length="1.44" shape="1944.65,2643.93 1946.02,2644.37"/>
    </edge>
    <edge id=":10244541228_11" function="internal">
        <lane id=":10244541228_11_0" index="0" disallow="tram rail_urban rail rail_electric rail_fast ship container cable_car subway aircraft wheelchair scooter drone" speed="3.65" length="3.23" shape="1946.02,2644.37 1946.62,2645.04 1946.45,2645.91 1945.51,2647.01"/>
    </edge>
    <edge id=":10244541233_0" function="internal">
        <lane id=":10244541233_0_0" index="0" disallow="tram rail_urban rail rail_electric rail_fast ship container cable_car subway aircraft wheelchair scooter drone" speed="7.32" length="9.98" shape="1935.60,2520.12 1934.49,2517.95 1932.79,2516.51 1930.48,2515.79 1927.58,2515.80"/>
    </edge>
    <edge id=":10244541233_1" function="internal">
        <lane id=":10244541233_1_0" index="0" disallow="tram rail_urban rail rail_electric rail_fast ship container cable_car subway aircraft wheelchair scooter drone" speed="13.89" length="14.87" shape="1935.60,2520.12 1931.32,2505.87"/>
    </edge>
    <edge id=":10244541233_2" function="internal">
        <lane id=":10244541233_2_0" index="0" disallow="tram rail_urban rail rail_electric rail_fast ship container cable_car subway aircraft wheelchair scooter drone" speed="8.98" length="3.91" shape="1935.60,2520.12 1935.05,2516.52 1935.11,2516.26"/>
    </edge>
    <edge id=":10244541233_3" function="internal">
        <lane id=":10244541233_3_0" index="0" disallow="tram rail_urban rail rail_electric rail_fast ship container cable_car subway aircraft wheelchair scooter drone" speed="3.65" length="1.44" shape="1935.60,2520.12 1936.00,2518.73"/>
    </edge>
    <edge id=":10244541233_16" function="internal">
        <lane id=":10244541233_16_0" index="0" disallow="tram rail_urban rail rail_electric rail_fast ship container cable_car subway aircraft wheelchair scooter drone" speed="8.98" length="10.97" shape="1935.11,2516.26 1935.82,2513.25 1937.90,2510.31 1941.28,2507.70"/>
    </edge>
    <edge id=":10244541233_17" function="internal">
        <lane id=":10244541233_17_0" index="0" disallow="tram rail_urban rail rail_electric rail_fast ship container cable_car subway aircraft wheelchair scooter drone" speed="3.65" length="3.23" shape="1936.00,2518.73 1936.64,2518.11 1937.52,2518.25 1938.65,2519.15"/>
    </edge>
    <edge id=":10244541233_4" function="internal">
        <lane id=":10244541233_4_0" index="0" disallow="tram rail_urban rail rail_electric rail_fast ship container cable_car subway aircraft wheelchair scooter drone" speed="7.65" length="10.56" shape="1942.94,2510.44 1940.45,2512.33 1938.90,2514.41 1938.30,2516.68 1938.65,2519.15"/>
    </edge>
    <edge id=":10244541233_5" function="internal">
        <lane id=":10244541233_5_0" index="0" disallow="tram rail_urban rail rail_electric rail_fast ship container cable_car subway aircraft wheelchair scooter drone" speed="13.89" length="16.37" shape="1942.94,2510.44 1939.43,2512.28 1935.52,2513.87 1931.47,2515.08 1927.58,2515.80"/>
    </edge>
    <edge id=":10244541233_6" function="internal">
        <lane id=":10244541233_6_0" index="0" disallow="tram rail_urban rail rail_electric rail_fast ship container cable_car subway aircraft wheelchair scooter drone" speed="7.61" length="15.32" shape="1942.94,2510.44 1938.91,2512.15 1935.64,2511.96 1933.10,2509.87 1931.32,2505.87"/>
    </edge>
    <edge id=":10244541233_7" function="internal">
        <lane id=":10244541233_7_0" index="0" disallow="tram rail_urban rail rail_electric rail_fast ship container cable_car subway aircraft wheelchair scooter drone" speed="3.65" length="4.67" shape="1942.94,2510.44 1941.50,2510.37 1940.74,2509.90 1940.67,2509.00 1941.28,2507.70"/>
    </edge>
    <edge id=":10244541233_8" function="internal">
        <lane id=":10244541233_8_0" index="0" disallow="tram rail_urban rail rail_electric rail_fast ship container cable_car subway aircraft wheelchair scooter drone" speed="6.01" length="9.08" shape="1934.40,2505.00 1935.45,2507.36 1936.95,2508.60 1938.90,2508.71 1941.28,2507.70"/>
    </edge>
    <edge id=":10244541233_9" function="internal">
        <lane id=":10244541233_9_0" index="0" disallow="tram rail_urban rail rail_electric rail_fast ship container cable_car subway aircraft wheelchair scooter drone" speed="13.89" length="14.78" shape="1934.40,2505.00 1938.65,2519.15"/>
    </edge>
    <edge id=":10244541233_10" function="internal">
        <lane id=":10244541233_10_0" index="0" disallow="tram rail_urban rail rail_electric rail_fast ship container cable_car subway aircraft wheelchair scooter drone" speed="7.82" length="4.35" shape="1934.40,2505.00 1935.01,2509.30"/>
    </edge>
    <edge id=":10244541233_11" function="internal">
        <lane id=":10244541233_11_0" index="0" disallow="tram rail_urban rail rail_electric rail_fast ship container cable_car subway aircraft wheelchair scooter drone" speed="3.65" length="1.44" shape="1934.40,2505.00 1933.96,2506.37"/>
    </edge>
    <edge id=":10244541233_18" function="internal">
        <lane id=":10244541233_18_0" index="0" disallow="tram rail_urban rail rail_electric rail_fast ship container cable_car subway aircraft wheelchair scooter drone" speed="7.82" length="10.82" shape="1935.01,2509.30 1934.07,2512.54 1931.60,2514.71 1927.58,2515.80"/>
    </edge>
    <edge id=":10244541233_19" function="internal">
        <lane id=":10244541233_19_0" index="0" disallow="tram rail_urban rail rail_electric rail_fast ship container cable_car subway aircraft wheelchair scooter drone" speed="3.65" length="3.23" shape="1933.96,2506.37 1933.30,2506.97 1932.42,2506.81 1931.32,2505.87"/>
    </edge>
    <edge id=":10244541233_12" function="internal">
        <lane id=":10244541233_12_0" index="0" disallow="tram rail_urban rail rail_electric rail_fast ship container cable_car subway aircraft wheelchair scooter drone" speed="6.28" length="9.38" shape="1927.21,2512.62 1929.66,2511.95 1931.16,2510.59 1931.71,2508.57 1931.32,2505.87"/>
    </edge>
    <edge id=":10244541233_13" function="internal">
        <lane id=":10244541233_13_0" index="0" disallow="tram rail_urban rail rail_electric rail_fast ship container cable_car subway aircraft wheelchair scooter drone" speed="13.89" length="15.02" shape="1927.21,2512.62 1930.90,2511.97 1934.50,2510.91 1937.98,2509.48 1941.28,2507.70"/>
    </edge>
    <edge id=":10244541233_14" function="internal">
        <lane id=":10244541233_14_0" index="0" disallow="tram rail_urban rail rail_electric rail_fast ship container cable_car subway aircraft wheelchair scooter drone" speed="8.69" length="14.45" shape="1927.21,2512.62 1931.31,2512.64 1934.58,2513.73 1937.03,2515.90 1938.65,2519.15"/>
    </edge>
    <edge id=":10244541233_15" function="internal">
        <lane id=":10244541233_15_0" index="0" disallow="tram rail_urban rail rail_electric rail_fast ship container cable_car subway aircraft wheelchair scooter drone" speed="3.65" length="4.67" shape="1927.21,2512.62 1928.49,2513.28 1928.98,2514.03 1928.68,2514.87 1927.58,2515.80"/>
    </edge>
    <edge id=":10275618251_0" function="internal">
        <lane id=":10275618251_0_0" index="0" disallow="tram rail_urban rail rail_electric rail_fast ship container cable_car subway aircraft wheelchair scooter drone" speed="8.90" length="13.30" shape="2330.35,2361.25 2327.90,2358.52 2325.16,2356.87 2322.13,2356.28 2318.82,2356.76"/>
    </edge>
    <edge id=":10275618251_1" function="internal">
        <lane id=":10275618251_1_0" index="0" disallow="tram rail_urban rail rail_electric rail_fast ship container cable_car subway aircraft wheelchair scooter drone" speed="13.89" length="17.45" shape="2330.35,2361.25 2327.96,2357.85 2325.43,2353.97 2323.26,2349.94 2321.92,2346.08"/>
    </edge>
    <edge id=":10275618251_2" function="internal">
        <lane id=":10275618251_2_0" index="0" disallow="tram rail_urban rail rail_electric rail_fast ship container cable_car subway aircraft wheelchair scooter drone" speed="7.72" length="4.82" shape="2330.35,2361.25 2328.08,2356.99"/>
    </edge>
    <edge id=":10275618251_3" function="internal">
        <lane id=":10275618251_3_0" index="0" disallow="tram rail_urban rail rail_electric rail_fast ship container cable_car subway aircraft wheelchair scooter drone" speed="3.68" length="1.60" shape="2330.35,2361.25 2329.99,2359.82 2330.03,2359.70"/>
    </edge>
    <edge id=":10275618251_16" function="internal">
        <lane id=":10275618251_16_0" index="0" disallow="tram rail_urban rail rail_electric rail_fast ship container cable_car subway aircraft wheelchair scooter drone" speed="7.72" length="11.11" shape="2328.08,2356.99 2327.82,2353.48 2329.58,2350.69 2333.35,2348.65"/>
    </edge>
    <edge id=":10275618251_17" function="internal">
        <lane id=":10275618251_17_0" index="0" disallow="tram rail_urban rail rail_electric rail_fast ship container cable_car subway aircraft wheelchair scooter drone" speed="3.68" length="3.18" shape="2330.03,2359.70 2330.24,2358.93 2331.10,2358.60 2332.56,2358.82"/>
    </edge>
    <edge id=":10275618251_4" function="internal">
        <lane id=":10275618251_4_0" index="0" disallow="tram rail_urban rail rail_electric rail_fast ship container cable_car subway aircraft wheelchair scooter drone" speed="5.99" length="9.10" shape="2334.41,2351.67 2332.22,2352.85 2331.17,2354.43 2331.29,2356.42 2332.56,2358.82"/>
    </edge>
    <edge id=":10275618251_5" function="internal">
        <lane id=":10275618251_5_0" index="0" disallow="tram rail_urban rail rail_electric rail_fast ship container cable_car subway aircraft wheelchair scooter drone" speed="8.33" length="16.40" shape="2334.41,2351.67 2318.82,2356.76"/>
    </edge>
    <edge id=":10275618251_6" function="internal">
        <lane id=":10275618251_6_0" index="0" disallow="tram rail_urban rail rail_electric rail_fast ship container cable_car subway aircraft wheelchair scooter drone" speed="7.83" length="14.94" shape="2334.41,2351.67 2330.78,2352.06 2326.90,2351.12 2323.66,2349.05 2321.92,2346.08"/>
    </edge>
    <edge id=":10275618251_7" function="internal">
        <lane id=":10275618251_7_0" index="0" disallow="tram rail_urban rail rail_electric rail_fast ship container cable_car subway aircraft wheelchair scooter drone" speed="3.65" length="4.67" shape="2334.41,2351.67 2333.02,2351.31 2332.37,2350.69 2332.49,2349.80 2333.35,2348.65"/>
    </edge>
    <edge id=":10275618251_8" function="internal">
        <lane id=":10275618251_8_0" index="0" disallow="tram rail_urban rail rail_electric rail_fast ship container cable_car subway aircraft wheelchair scooter drone" speed="6.64" length="10.42" shape="2325.06,2345.44 2326.01,2347.78 2327.72,2349.10 2330.16,2349.39 2333.35,2348.65"/>
    </edge>
    <edge id=":10275618251_9" function="internal">
        <lane id=":10275618251_9_0" index="0" disallow="tram rail_urban rail rail_electric rail_fast ship container cable_car subway aircraft wheelchair scooter drone" speed="13.89" length="15.45" shape="2325.06,2345.44 2326.24,2349.02 2328.10,2352.44 2330.30,2355.70 2332.56,2358.82"/>
    </edge>
    <edge id=":10275618251_10" function="internal">
        <lane id=":10275618251_10_0" index="0" disallow="tram rail_urban rail rail_electric rail_fast ship container cable_car subway aircraft wheelchair scooter drone" speed="8.33" length="2.74" shape="2325.06,2345.44 2325.26,2348.17"/>
    </edge>
    <edge id=":10275618251_11" function="internal">
        <lane id=":10275618251_11_0" index="0" disallow="tram rail_urban rail rail_electric rail_fast ship container cable_car subway aircraft wheelchair scooter drone" speed="3.65" length="1.31" shape="2325.06,2345.44 2324.56,2346.65"/>
    </edge>
    <edge id=":10275618251_18" function="internal">
        <lane id=":10275618251_18_0" index="0" disallow="tram rail_urban rail rail_electric rail_fast ship container cable_car subway aircraft wheelchair scooter drone" speed="8.33" length="11.73" shape="2325.26,2348.17 2325.36,2349.50 2324.42,2352.74 2322.24,2355.16 2318.82,2356.76"/>
    </edge>
    <edge id=":10275618251_19" function="internal">
        <lane id=":10275618251_19_0" index="0" disallow="tram rail_urban rail rail_electric rail_fast ship container cable_car subway aircraft wheelchair scooter drone" speed="3.65" length="3.36" shape="2324.56,2346.65 2324.51,2346.77 2323.81,2347.33 2322.95,2347.10 2321.92,2346.08"/>
    </edge>
    <edge id=":10275618251_12" function="internal">
        <lane id=":10275618251_12_0" index="0" disallow="tram rail_urban rail rail_electric rail_fast ship container cable_car subway aircraft wheelchair scooter drone" speed="6.90" length="9.62" shape="2317.92,2353.69 2320.14,2352.64 2321.54,2351.02 2322.14,2348.83 2321.92,2346.08"/>
    </edge>
    <edge id=":10275618251_13" function="internal">
        <lane id=":10275618251_13_0" index="0" disallow="tram rail_urban rail rail_electric rail_fast ship container cable_car subway aircraft wheelchair scooter drone" speed="8.33" length="16.24" shape="2317.92,2353.69 2333.35,2348.65"/>
    </edge>
    <edge id=":10275618251_14" function="internal">
        <lane id=":10275618251_14_0" index="0" disallow="tram rail_urban rail rail_electric rail_fast ship container cable_car subway aircraft wheelchair scooter drone" speed="9.78" length="16.23" shape="2317.92,2353.69 2321.73,2353.38 2325.90,2354.29 2329.74,2356.19 2332.56,2358.82"/>
    </edge>
    <edge id=":10275618251_15" function="internal">
        <lane id=":10275618251_15_0" index="0" disallow="tram rail_urban rail rail_electric rail_fast ship container cable_car subway aircraft wheelchair scooter drone" speed="3.65" length="4.67" shape="2317.92,2353.69 2319.30,2354.12 2319.90,2354.77 2319.75,2355.65 2318.82,2356.76"/>
    </edge>
    <edge id=":10584112894_0" function="internal">
        <lane id=":10584112894_0_0" index="0" disallow="tram rail_urban rail rail_electric rail_fast ship container cable_car subway aircraft wheelchair scooter drone" speed="8.33" length="14.41" shape="1055.88,2401.92 1041.47,2401.63"/>
    </edge>
    <edge id=":10584112894_1" function="internal">
        <lane id=":10584112894_1_0" index="0" disallow="tram rail_urban rail rail_electric rail_fast ship container cable_car subway aircraft wheelchair scooter drone" speed="9.06" length="14.62" shape="1055.88,2401.92 1052.41,2401.21 1049.62,2399.42 1047.53,2396.54 1046.13,2392.58"/>
    </edge>
    <edge id=":10584112894_2" function="internal">
        <lane id=":10584112894_2_0" index="0" disallow="tram rail_urban rail rail_electric rail_fast ship container cable_car subway aircraft wheelchair scooter drone" speed="3.65" length="4.67" shape="1055.88,2401.92 1054.71,2401.07 1054.35,2400.25 1054.78,2399.47 1056.01,2398.72"/>
    </edge>
    <edge id=":10584112894_3" function="internal">
        <lane id=":10584112894_3_0" index="0" disallow="tram rail_urban rail rail_electric rail_fast ship container cable_car subway aircraft wheelchair scooter drone" speed="7.73" length="10.43" shape="1049.24,2391.84 1050.25,2394.77 1051.72,2396.89 1053.64,2398.21 1056.01,2398.72"/>
    </edge>
    <edge id=":10584112894_4" function="internal">
        <lane id=":10584112894_4_0" index="0" disallow="tram rail_urban rail rail_electric rail_fast ship container cable_car subway aircraft wheelchair scooter drone" speed="7.65" length="15.16" shape="1049.24,2391.84 1049.62,2396.13 1048.45,2399.19 1045.74,2401.02 1041.47,2401.63"/>
    </edge>
    <edge id=":10584112894_5" function="internal">
        <lane id=":10584112894_5_0" index="0" disallow="tram rail_urban rail rail_electric rail_fast ship container cable_car subway aircraft wheelchair scooter drone" speed="3.65" length="4.67" shape="1049.24,2391.84 1048.74,2393.20 1048.05,2393.77 1047.18,2393.56 1046.13,2392.58"/>
    </edge>
    <edge id=":10584112894_6" function="internal">
        <lane id=":10584112894_6_0" index="0" disallow="tram rail_urban rail rail_electric rail_fast ship container cable_car subway aircraft wheelchair scooter drone" speed="6.06" length="9.07" shape="1041.48,2398.43 1044.03,2398.07 1045.65,2396.97 1046.35,2395.14 1046.13,2392.58"/>
    </edge>
    <edge id=":10584112894_7" function="internal">
        <lane id=":10584112894_7_0" index="0" disallow="tram rail_urban rail rail_electric rail_fast ship container cable_car subway aircraft wheelchair scooter drone" speed="8.33" length="14.54" shape="1041.48,2398.43 1056.01,2398.72"/>
    </edge>
    <edge id=":10584112894_8" function="internal">
        <lane id=":10584112894_8_0" index="0" disallow="tram rail_urban rail rail_electric rail_fast ship container cable_car subway aircraft wheelchair scooter drone" speed="3.65" length="4.67" shape="1041.48,2398.43 1042.68,2399.23 1043.08,2400.03 1042.67,2400.83 1041.47,2401.63"/>
    </edge>
    <edge id=":10929758472_0" function="internal">
        <lane id=":10929758472_0_0" index="0" disallow="tram rail_urban rail rail_electric rail_fast ship container cable_car subway aircraft wheelchair scooter drone" speed="8.33" length="9.71" shape="1647.31,2363.92 1646.32,2354.26"/>
    </edge>
    <edge id=":10929758472_1" function="internal">
        <lane id=":10929758472_1_0" index="0" allow="pedestrian delivery bicycle" speed="6.95" length="2.84" shape="1647.31,2363.92 1647.48,2361.53 1647.68,2361.13"/>
    </edge>
    <edge id=":10929758472_7" function="internal">
        <lane id=":10929758472_7_0" index="0" allow="pedestrian delivery bicycle" speed="6.95" length="7.66" shape="1647.68,2361.13 1648.52,2359.44 1650.44,2357.67 1653.24,2356.20"/>
    </edge>
    <edge id=":10929758472_2" function="internal">
        <lane id=":10929758472_2_0" index="0" allow="pedestrian delivery bicycle" speed="6.18" length="6.34" shape="1654.44,2359.17 1652.61,2360.09 1651.34,2361.13 1650.63,2362.29 1650.50,2363.58"/>
    </edge>
    <edge id=":10929758472_3" function="internal">
        <lane id=":10929758472_3_0" index="0" allow="pedestrian delivery bicycle" speed="6.69" length="11.71" shape="1654.44,2359.17 1651.18,2359.98 1648.74,2359.43 1647.12,2357.52 1646.32,2354.26"/>
    </edge>
    <edge id=":10929758472_4" function="internal">
        <lane id=":10929758472_4_0" index="0" allow="pedestrian delivery bicycle" speed="3.65" length="4.67" shape="1654.44,2359.17 1653.03,2358.88 1652.36,2358.29 1652.43,2357.40 1653.24,2356.20"/>
    </edge>
    <edge id=":10929758472_5" function="internal">
        <lane id=":10929758472_5_0" index="0" allow="pedestrian delivery bicycle" speed="4.79" length="5.38" shape="1649.51,2353.95 1649.88,2355.45 1650.62,2356.32 1651.74,2356.57 1653.24,2356.20"/>
    </edge>
    <edge id=":10929758472_6" function="internal">
        <lane id=":10929758472_6_0" index="0" disallow="tram rail_urban rail rail_electric rail_fast ship container cable_car subway aircraft wheelchair scooter drone" speed="8.33" length="9.68" shape="1649.51,2353.95 1650.50,2363.58"/>
    </edge>
    <edge id=":11189600431_0" function="internal">
        <lane id=":11189600431_0_0" index="0" disallow="tram rail_urban rail rail_electric rail_fast ship container cable_car subway aircraft wheelchair scooter drone" speed="6.18" length="9.05" shape="1153.90,2927.57 1152.08,2925.80 1150.20,2925.15 1148.27,2925.63 1146.29,2927.22"/>
    </edge>
    <edge id=":11189600431_1" function="internal">
        <lane id=":11189600431_1_0" index="0" disallow="tram rail_urban rail rail_electric rail_fast ship container cable_car subway aircraft wheelchair scooter drone" speed="9.23" length="14.31" shape="1153.90,2927.57 1151.77,2924.10 1150.83,2920.73 1151.08,2917.47 1152.51,2914.31"/>
    </edge>
    <edge id=":11189600431_2" function="internal">
        <lane id=":11189600431_2_0" index="0" disallow="tram rail_urban rail rail_electric rail_fast ship container cable_car subway aircraft wheelchair scooter drone" speed="3.65" length="4.67" shape="1153.90,2927.57 1153.80,2926.13 1154.19,2925.33 1155.07,2925.16 1156.43,2925.62"/>
    </edge>
    <edge id=":11189600431_3" function="internal">
        <lane id=":11189600431_3_0" index="0" disallow="tram rail_urban rail rail_electric rail_fast ship container cable_car subway aircraft wheelchair scooter drone" speed="7.92" length="10.33" shape="1155.19,2916.06 1154.21,2918.27 1154.10,2920.60 1154.84,2923.05 1156.43,2925.62"/>
    </edge>
    <edge id=":11189600431_4" function="internal">
        <lane id=":11189600431_4_0" index="0" disallow="tram rail_urban rail rail_electric rail_fast ship container cable_car subway aircraft wheelchair scooter drone" speed="27.78" length="14.29" shape="1155.19,2916.06 1153.13,2919.06 1150.99,2921.84 1148.74,2924.52 1146.29,2927.22"/>
    </edge>
    <edge id=":11189600431_5" function="internal">
        <lane id=":11189600431_5_0" index="0" disallow="tram rail_urban rail rail_electric rail_fast ship container cable_car subway aircraft wheelchair scooter drone" speed="3.65" length="1.44" shape="1155.19,2916.06 1153.86,2916.63"/>
    </edge>
    <edge id=":11189600431_9" function="internal">
        <lane id=":11189600431_9_0" index="0" disallow="tram rail_urban rail rail_electric rail_fast ship container cable_car subway aircraft wheelchair scooter drone" speed="3.65" length="3.23" shape="1153.86,2916.63 1152.98,2916.53 1152.53,2915.76 1152.51,2914.31"/>
    </edge>
    <edge id=":11189600431_6" function="internal">
        <lane id=":11189600431_6_0" index="0" disallow="tram rail_urban rail rail_electric rail_fast ship container cable_car subway aircraft wheelchair scooter drone" speed="27.78" length="13.74" shape="1143.95,2925.04 1146.34,2922.41 1148.48,2919.87 1150.50,2917.24 1152.51,2914.31"/>
    </edge>
    <edge id=":11189600431_7" function="internal">
        <lane id=":11189600431_7_0" index="0" disallow="tram rail_urban rail rail_electric rail_fast ship container cable_car subway aircraft wheelchair scooter drone" speed="7.74" length="4.17" shape="1143.95,2925.04 1147.20,2922.42"/>
    </edge>
    <edge id=":11189600431_8" function="internal">
        <lane id=":11189600431_8_0" index="0" disallow="tram rail_urban rail rail_electric rail_fast ship container cable_car subway aircraft wheelchair scooter drone" speed="3.65" length="1.44" shape="1143.95,2925.04 1145.35,2924.71"/>
    </edge>
    <edge id=":11189600431_10" function="internal">
        <lane id=":11189600431_10_0" index="0" disallow="tram rail_urban rail rail_electric rail_fast ship container cable_car subway aircraft wheelchair scooter drone" speed="7.74" length="10.68" shape="1147.20,2922.42 1150.36,2921.65 1153.44,2922.71 1156.43,2925.62"/>
    </edge>
    <edge id=":11189600431_11" function="internal">
        <lane id=":11189600431_11_0" index="0" disallow="tram rail_urban rail rail_electric rail_fast ship container cable_car subway aircraft wheelchair scooter drone" speed="3.65" length="3.23" shape="1145.35,2924.71 1146.21,2924.96 1146.52,2925.80 1146.29,2927.22"/>
    </edge>
    <edge id=":11189600432_0" function="internal">