<?xml version="1.0" encoding="UTF-8"?>

<!-- generated on 2025-12-30 21:20:00 by Eclipse SUMO netconvert Version 1.24.0
<netconvertConfiguration xmlns:xsi="http://www.w3.org/2001/XMLSchema-instance" xsi:noNamespaceSchemaLocation="http://sumo.dlr.de/xsd/netconvertConfiguration.xsd">

    <input>
        <osm-files value="C:\Users\USER\Desktop\road_network_project\signal_phase-1\osm\map.osm.xml"/>
    </input>

    <output>
        <output-file value="C:\Users\USER\Desktop\road_network_project\signal_phase-1\sumo\network.net.xml"/>
    </output>

    <projection>
        <proj.utm value="true"/>
    </projection>

    <processing>
        <geometry.remove value="true"/>
        <roundabouts.guess value="true"/>
    </processing>

    <tls_building>
        <tls.guess value="true"/>
        <tls.default-type value="static"/>
    </tls_building>

    <ramp_guessing>
        <ramps.guess value="true"/>
    </ramp_guessing>

    <junctions>
        <junctions.join value="true"/>
    </junctions>

    <report>
        <verbose value="true"/>
    </report>

</netconvertConfiguration>
-->

<net version="1.20" junctionCornerDetail="5" limitTurnSpeed="5.50" xmlns:xsi="http://www.w3.org/2001/XMLSchema-instance" xsi:noNamespaceSchemaLocation="http://sumo.dlr.de/xsd/net_file.xsd">

    <location netOffset="-716957.53,-936438.98" convBoundary="0.00,0.00,2006.28,2011.62" origBoundary="76.970769,8.466637,76.988940,8.484851" projParameter="+proj=utm +zone=43 +ellps=WGS84 +datum=WGS84 +units=m +no_defs"/>

    <type id="highway.primary" priority="12" numLanes="2" speed="27.78" disallow="tram rail_urban rail rail_electric rail_fast ship container cable_car subway aircraft wheelchair scooter drone" oneway="0"/>
    <type id="highway.primary_link" priority="7" numLanes="1" speed="22.22" disallow="tram rail_urban rail rail_electric rail_fast ship container cable_car subway aircraft wheelchair scooter drone" oneway="0"/>
    <type id="highway.residential" priority="3" numLanes="1" speed="13.89" disallow="tram rail_urban rail rail_electric rail_fast ship container cable_car subway aircraft wheelchair scooter drone" oneway="0"/>
    <type id="highway.secondary" priority="11" numLanes="1" speed="27.78" disallow="tram rail_urban rail rail_electric rail_fast ship container cable_car subway aircraft wheelchair scooter drone" oneway="0"/>
    <type id="highway.service" priority="1" numLanes="1" speed="5.56" allow="pedestrian delivery bicycle" oneway="0"/>
    <type id="highway.tertiary" priority="10" numLanes="1" speed="22.22" disallow="tram rail_urban rail rail_electric rail_fast ship container cable_car subway aircraft wheelchair scooter drone" oneway="0"/>
    <type id="highway.tertiary_link" priority="5" numLanes="1" speed="22.22" disallow="tram rail_urban rail rail_electric rail_fast ship container cable_car subway aircraft wheelchair scooter drone" oneway="0"/>
    <type id="highway.unclassified" priority="4" numLanes="1" speed="13.89" disallow="tram rail_urban rail rail_electric rail_fast ship container cable_car subway aircraft wheelchair scooter drone" oneway="0"/>

    <edge id=":10928627924_0" function="internal">
        <lane id=":10928627924_0_0" index="0" disallow="tram rail_urban rail rail_electric rail_fast ship container cable_car subway aircraft wheelchair scooter drone" speed="3.65" length="4.67" shape="567.65,202.04 566.57,201.07 566.29,200.22 566.80,199.49 568.11,198.87"/>
    </edge>
    <edge id=":10936666419_0" function="internal">
        <lane id=":10936666419_0_0" index="0" disallow="tram rail_urban rail rail_electric rail_fast ship container cable_car subway aircraft wheelchair scooter drone" speed="27.78" length="7.74" shape="720.35,745.70 718.71,747.45 717.62,748.70 716.48,749.88 714.67,751.45"/>
        <lane id=":10936666419_0_1" index="1" disallow="tram rail_urban rail rail_electric rail_fast ship container cable_car subway aircraft wheelchair scooter drone" speed="27.78" length="7.74" shape="718.07,743.46 716.50,745.14 715.46,746.33 714.38,747.46 712.65,748.97"/>
        <lane id=":10936666419_0_2" index="2" disallow="tram rail_urban rail rail_electric rail_fast ship container cable_car subway aircraft wheelchair scooter drone" speed="27.78" length="7.74" shape="715.78,741.21 714.29,742.82 713.30,743.96 712.27,745.05 710.62,746.49"/>
    </edge>
    <edge id=":10936666419_3" function="internal">
        <lane id=":10936666419_3_0" index="0" disallow="tram rail_urban rail rail_electric rail_fast ship container cable_car subway aircraft wheelchair scooter drone" speed="9.72" length="6.24" shape="712.40,739.32 711.83,741.02 711.10,742.05 710.08,742.89 708.60,744.01"/>
    </edge>
    <edge id=":10936666422_0" function="internal">
        <lane id=":10936666422_0_0" index="0" disallow="tram rail_urban rail rail_electric rail_fast ship container cable_car subway aircraft wheelchair scooter drone" speed="5.54" length="11.29" shape="722.06,715.77 719.53,712.84 717.89,712.17 717.14,713.78 717.29,717.65"/>
    </edge>
    <edge id=":10936666422_1" function="internal">
        <lane id=":10936666422_1_0" index="0" disallow="tram rail_urban rail rail_electric rail_fast ship container cable_car subway aircraft wheelchair scooter drone" speed="27.78" length="15.26" shape="722.06,715.77 713.04,703.47"/>
    </edge>
    <edge id=":10936666422_2" function="internal">
        <lane id=":10936666422_2_0" index="0" disallow="tram rail_urban rail rail_electric rail_fast ship container cable_car subway aircraft wheelchair scooter drone" speed="3.65" length="1.44" shape="722.06,715.77 722.00,714.33"/>
    </edge>
    <edge id=":10936666422_9" function="internal">
        <lane id=":10936666422_9_0" index="0" disallow="tram rail_urban rail rail_electric rail_fast ship container cable_car subway aircraft wheelchair scooter drone" speed="3.65" length="3.23" shape="722.00,714.33 722.41,713.54 723.29,713.39 724.64,713.88"/>
    </edge>
    <edge id=":10936666422_3" function="internal">
        <lane id=":10936666422_3_0" index="0" disallow="tram rail_urban rail rail_electric rail_fast ship container cable_car subway aircraft wheelchair scooter drone" speed="5.71" length="11.53" shape="726.78,707.91 723.47,707.28 722.01,708.06 722.40,710.26 724.64,713.88"/>
    </edge>
    <edge id=":10936666422_4" function="internal">
        <lane id=":10936666422_4_0" index="0" disallow="tram rail_urban rail rail_electric rail_fast ship container cable_car subway aircraft wheelchair scooter drone" speed="7.77" length="17.65" shape="726.78,707.91 722.04,707.21 718.88,708.59 717.29,712.08 717.29,717.65"/>
    </edge>
    <edge id=":10936666422_5" function="internal">
        <lane id=":10936666422_5_0" index="0" disallow="tram rail_urban rail rail_electric rail_fast ship container cable_car subway aircraft wheelchair scooter drone" speed="14.97" length="14.75" shape="726.78,707.91 723.04,707.15 719.24,706.64 715.77,705.65 713.04,703.47"/>
    </edge>
    <edge id=":10936666422_6" function="internal">
        <lane id=":10936666422_6_0" index="0" disallow="tram rail_urban rail rail_electric rail_fast ship container cable_car subway aircraft wheelchair scooter drone" speed="27.78" length="15.26" shape="715.63,701.58 724.64,713.88"/>
    </edge>
    <edge id=":10936666422_7" function="internal">
        <lane id=":10936666422_7_0" index="0" disallow="tram rail_urban rail rail_electric rail_fast ship container cable_car subway aircraft wheelchair scooter drone" speed="19.01" length="2.97" shape="715.63,701.58 716.74,704.33"/>
    </edge>
    <edge id=":10936666422_8" function="internal">
        <lane id=":10936666422_8_0" index="0" disallow="tram rail_urban rail rail_electric rail_fast ship container cable_car subway aircraft wheelchair scooter drone" speed="3.65" length="1.44" shape="715.63,701.58 715.69,703.02"/>
    </edge>
    <edge id=":10936666422_10" function="internal">
        <lane id=":10936666422_10_0" index="0" disallow="tram rail_urban rail rail_electric rail_fast ship container cable_car subway aircraft wheelchair scooter drone" speed="19.01" length="13.40" shape="716.74,704.33 717.05,705.09 717.35,709.27 717.20,713.61 717.29,717.65"/>
    </edge>
    <edge id=":10936666422_11" function="internal">
        <lane id=":10936666422_11_0" index="0" disallow="tram rail_urban rail rail_electric rail_fast ship container cable_car subway aircraft wheelchair scooter drone" speed="3.65" length="3.23" shape="715.69,703.02 715.28,703.81 714.40,703.96 713.04,703.47"/>
    </edge>
    <edge id=":10936666425_0" function="internal">
        <lane id=":10936666425_0_0" index="0" disallow="tram rail_urban rail rail_electric rail_fast ship container cable_car subway aircraft wheelchair scooter drone" speed="27.78" length="14.59" shape="762.24,708.60 750.92,717.80"/>
        <lane id=":10936666425_0_1" index="1" disallow="tram rail_urban rail rail_electric rail_fast ship container cable_car subway aircraft wheelchair scooter drone" speed="27.78" length="14.59" shape="760.22,706.12 748.90,715.32"/>
        <lane id=":10936666425_0_2" index="2" disallow="tram rail_urban rail rail_electric rail_fast ship container cable_car subway aircraft wheelchair scooter drone" speed="27.78" length="14.59" shape="758.21,703.64 746.89,712.83"/>
    </edge>
    <edge id=":10936666425_3" function="internal">
        <lane id=":10936666425_3_0" index="0" disallow="tram rail_urban rail rail_electric rail_fast ship container cable_car subway aircraft wheelchair scooter drone" speed="18.10" length="14.46" shape="758.21,703.64 754.48,706.11 751.27,707.27 748.17,707.74 744.76,708.19"/>
    </edge>
    <edge id=":10936666446_0" function="internal">
        <lane id=":10936666446_0_0" index="0" allow="pedestrian delivery bicycle" speed="3.65" length="4.67" shape="971.92,455.11 971.99,453.67 972.47,452.91 973.37,452.85 974.67,453.47"/>
    </edge>
    <edge id=":10936666447_0" function="internal">
        <lane id=":10936666447_0_0" index="0" disallow="tram rail_urban rail rail_electric rail_fast ship container cable_car subway aircraft wheelchair scooter drone" speed="27.78" length="9.43" shape="1011.46,507.62 1003.87,513.23"/>
        <lane id=":10936666447_0_1" index="1" disallow="tram rail_urban rail rail_electric rail_fast ship container cable_car subway aircraft wheelchair scooter drone" speed="27.78" length="9.43" shape="1009.55,505.05 1001.97,510.65"/>
        <lane id=":10936666447_0_2" index="2" disallow="tram rail_urban rail rail_electric rail_fast ship container cable_car subway aircraft wheelchair scooter drone" speed="27.78" length="9.43" shape="1007.65,502.47 1000.07,508.08"/>
    </edge>
    <edge id=":10936666447_3" function="internal">
        <lane id=":10936666447_3_0" index="0" allow="pedestrian delivery bicycle" speed="5.98" length="8.04" shape="1007.65,502.47 1005.26,503.97 1003.28,504.59 1001.73,504.35 1000.60,503.25"/>
    </edge>
    <edge id=":10936666447_4" function="internal">
        <lane id=":10936666447_4_0" index="0" allow="pedestrian delivery bicycle" speed="7.13" length="10.21" shape="1003.35,501.61 1004.51,504.26 1004.66,506.65 1003.82,508.79 1001.97,510.65"/>
        <lane id=":10936666447_4_1" index="1" allow="pedestrian delivery bicycle" speed="6.36" length="7.94" shape="1003.35,501.61 1003.77,503.07 1003.37,504.63 1002.13,506.30 1000.07,508.08"/>
    </edge>
    <edge id=":10936666447_6" function="internal">
        <lane id=":10936666447_6_0" index="0" allow="pedestrian delivery bicycle" speed="3.65" length="4.67" shape="1003.35,501.61 1003.28,503.05 1002.80,503.80 1001.90,503.87 1000.60,503.25"/>
    </edge>
    <edge id=":11080736322_0" function="internal">
        <lane id=":11080736322_0_0" index="0" disallow="tram rail_urban rail rail_electric rail_fast ship container cable_car subway aircraft wheelchair scooter drone" speed="3.65" length="4.67" shape="578.38,401.82 577.69,400.55 577.71,399.65 578.44,399.13 579.88,398.99"/>
    </edge>
    <edge id=":11092876469_0" function="internal">
        <lane id=":11092876469_0_0" index="0" disallow="tram rail_urban rail rail_electric rail_fast ship container cable_car subway aircraft wheelchair scooter drone" speed="13.89" length="15.09" shape="664.36,212.24 660.59,212.35 656.81,212.33 653.03,212.19 649.28,211.90"/>
    </edge>
    <edge id=":11092876469_1" function="internal">
        <lane id=":11092876469_1_0" index="0" disallow="tram rail_urban rail rail_electric rail_fast ship container cable_car subway aircraft wheelchair scooter drone" speed="7.76" length="4.35" shape="664.36,212.24 660.23,211.84 660.06,211.73"/>
    </edge>
    <edge id=":11092876469_2" function="internal">
        <lane id=":11092876469_2_0" index="0" disallow="tram rail_urban rail rail_electric rail_fast ship container cable_car subway aircraft wheelchair scooter drone" speed="3.65" length="1.44" shape="664.36,212.24 663.12,211.50"/>
    </edge>
    <edge id=":11092876469_9" function="internal">
        <lane id=":11092876469_9_0" index="0" disallow="tram rail_urban rail rail_electric rail_fast ship container cable_car subway aircraft wheelchair scooter drone" speed="7.76" length="10.45" shape="660.06,211.73 657.43,210.18 655.95,207.29 655.79,203.14"/>
    </edge>
    <edge id=":11092876469_10" function="internal">
        <lane id=":11092876469_10_0" index="0" disallow="tram rail_urban rail rail_electric rail_fast ship container cable_car subway aircraft wheelchair scooter drone" speed="3.65" length="3.23" shape="663.12,211.50 662.69,210.72 663.05,209.90 664.21,209.05"/>
    </edge>
    <edge id=":11092876469_3" function="internal">
        <lane id=":11092876469_3_0" index="0" disallow="tram rail_urban rail rail_electric rail_fast ship container cable_car subway aircraft wheelchair scooter drone" speed="6.20" length="9.05" shape="658.98,203.48 659.07,206.02 659.98,207.79 661.69,208.80 664.21,209.05"/>
    </edge>
    <edge id=":11092876469_4" function="internal">
        <lane id=":11092876469_4_0" index="0" disallow="tram rail_urban rail rail_electric rail_fast ship container cable_car subway aircraft wheelchair scooter drone" speed="8.14" length="14.61" shape="658.98,203.48 658.00,207.48 656.06,210.21 653.15,211.69 649.28,211.90"/>
    </edge>
    <edge id=":11092876469_5" function="internal">
        <lane id=":11092876469_5_0" index="0" disallow="tram rail_urban rail rail_electric rail_fast ship container cable_car subway aircraft wheelchair scooter drone" speed="3.65" length="4.67" shape="658.98,203.48 658.05,204.59 657.22,204.90 656.46,204.42 655.79,203.14"/>
    </edge>
    <edge id=":11092876469_6" function="internal">
        <lane id=":11092876469_6_0" index="0" disallow="tram rail_urban rail rail_electric rail_fast ship container cable_car subway aircraft wheelchair scooter drone" speed="6.67" length="9.48" shape="649.59,208.71 652.06,208.57 653.92,207.59 655.16,205.78 655.79,203.14"/>
    </edge>
    <edge id=":11092876469_7" function="internal">
        <lane id=":11092876469_7_0" index="0" disallow="tram rail_urban rail rail_electric rail_fast ship container cable_car subway aircraft wheelchair scooter drone" speed="13.89" length="14.64" shape="649.59,208.71 653.27,209.00 656.89,209.14 660.52,209.16 664.21,209.05"/>
    </edge>
    <edge id=":11092876469_8" function="internal">
        <lane id=":11092876469_8_0" index="0" disallow="tram rail_urban rail rail_electric rail_fast ship container cable_car subway aircraft wheelchair scooter drone" speed="3.65" length="1.44" shape="649.59,208.71 650.71,209.62"/>
    </edge>
    <edge id=":11092876469_11" function="internal">
        <lane id=":11092876469_11_0" index="0" disallow="tram rail_urban rail rail_electric rail_fast ship container cable_car subway aircraft wheelchair scooter drone" speed="3.65" length="3.23" shape="650.71,209.62 651.03,210.46 650.55,211.22 649.28,211.90"/>
    </edge>
    <edge id=":11093426364_0" function="internal">
        <lane id=":11093426364_0_0" index="0" allow="pedestrian delivery bicycle" speed="3.65" length="4.67" shape="1023.19,644.32 1024.50,644.91 1025.03,645.63 1024.77,646.48 1023.72,647.47"/>
    </edge>
    <edge id=":11183564040_0" function="internal">
        <lane id=":11183564040_0_0" index="0" disallow="tram rail_urban rail rail_electric rail_fast ship container cable_car subway aircraft wheelchair scooter drone" speed="3.65" length="4.67" shape="793.87,811.34 792.64,810.58 792.22,809.79 792.59,808.98 793.76,808.14"/>
    </edge>
    <edge id=":11219230698_0" function="internal">
        <lane id=":11219230698_0_0" index="0" disallow="tram rail_urban rail rail_electric rail_fast ship container cable_car subway aircraft wheelchair scooter drone" speed="3.65" length="4.67" shape="226.05,137.07 225.91,135.63 226.28,134.82 227.15,134.62 228.53,135.04"/>
    </edge>
    <edge id=":11220325327_0" function="internal">
        <lane id=":11220325327_0_0" index="0" disallow="tram rail_urban rail rail_electric rail_fast ship container cable_car subway aircraft wheelchair scooter drone" speed="3.65" length="4.67" shape="1157.47,899.89 1157.67,901.32 1157.34,902.15 1156.47,902.38 1155.08,902.01"/>
    </edge>
    <edge id=":11221812697_0" function="internal">
        <lane id=":11221812697_0_0" index="0" allow="pedestrian delivery bicycle" speed="5.00" length="5.04" shape="813.01,379.06 812.65,377.72 811.94,376.83 810.89,376.40 809.50,376.43"/>
    </edge>
    <edge id=":11221812697_1" function="internal">
        <lane id=":11221812697_1_0" index="0" allow="pedestrian delivery bicycle" speed="5.56" length="10.13" shape="813.01,379.06 813.04,376.24 813.91,374.08 815.63,372.57 818.18,371.70"/>
    </edge>
    <edge id=":11221812697_2" function="internal">
        <lane id=":11221812697_2_0" index="0" allow="pedestrian delivery bicycle" speed="3.65" length="4.67" shape="813.01,379.06 813.66,377.77 814.40,377.27 815.25,377.57 816.19,378.66"/>
    </edge>
    <edge id=":11221812697_3" function="internal">
        <lane id=":11221812697_3_0" index="0" allow="pedestrian delivery bicycle" speed="5.20" length="5.17" shape="818.75,374.85 817.47,375.29 816.62,376.07 816.19,377.20 816.19,378.66"/>
    </edge>
    <edge id=":11221812697_4" function="internal">
        <lane id=":11221812697_4_0" index="0" allow="pedestrian delivery bicycle" speed="5.56" length="9.37" shape="818.75,374.85 809.50,376.43"/>
    </edge>
    <edge id=":11221812697_5" function="internal">
        <lane id=":11221812697_5_0" index="0" allow="pedestrian delivery bicycle" speed="3.65" length="4.67" shape="818.75,374.85 817.42,374.28 816.89,373.56 817.14,372.71 818.18,371.70"/>
    </edge>
    <edge id=":11221812697_6" function="internal">
        <lane id=":11221812697_6_0" index="0" allow="pedestrian delivery bicycle" speed="5.56" length="9.31" shape="809.00,373.27 818.18,371.70"/>
    </edge>
    <edge id=":11221812697_7" function="internal">
        <lane id=":11221812697_7_0" index="0" allow="pedestrian delivery bicycle" speed="5.56" length="10.34" shape="809.00,373.27 811.84,373.22 813.99,374.10 815.44,375.92 816.19,378.66"/>
    </edge>
    <edge id=":11221812697_8" function="internal">
        <lane id=":11221812697_8_0" index="0" allow="pedestrian delivery bicycle" speed="3.65" length="4.67" shape="809.00,373.27 810.31,373.87 810.83,374.59 810.56,375.45 809.50,376.43"/>
    </edge>
    <edge id=":11221812698_0" function="internal">
        <lane id=":11221812698_0_0" index="0" allow="pedestrian delivery bicycle" speed="3.65" length="4.67" shape="943.24,349.14 944.56,349.72 945.10,350.43 944.85,351.29 943.81,352.29"/>
    </edge>
    <edge id=":11221812699_0" function="internal">
        <lane id=":11221812699_0_0" index="0" allow="pedestrian delivery bicycle" speed="3.65" length="4.67" shape="773.93,382.13 772.62,381.53 772.09,380.80 772.36,379.95 773.42,378.97"/>
    </edge>
    <edge id=":11221812700_0" function="internal">
        <lane id=":11221812700_0_0" index="0" allow="pedestrian delivery bicycle" speed="5.26" length="5.27" shape="850.62,544.31 849.57,543.47 848.44,543.17 847.23,543.42 845.93,544.21"/>
    </edge>
    <edge id=":11221812700_1" function="internal">
        <lane id=":11221812700_1_0" index="0" allow="pedestrian delivery bicycle" speed="5.56" length="9.41" shape="850.62,544.31 844.31,537.33"/>
    </edge>
    <edge id=":11221812700_2" function="internal">
        <lane id=":11221812700_2_0" index="0" allow="pedestrian delivery bicycle" speed="3.65" length="4.67" shape="850.62,544.31 850.41,542.89 850.73,542.05 851.60,541.81 852.99,542.17"/>
    </edge>
    <edge id=":11221812700_3" function="internal">
        <lane id=":11221812700_3_0" index="0" allow="pedestrian delivery bicycle" speed="5.56" length="9.41" shape="846.68,535.18 852.99,542.17"/>
    </edge>
    <edge id=":11221812700_4" function="internal">
        <lane id=":11221812700_4_0" index="0" allow="pedestrian delivery bicycle" speed="5.56" length="10.49" shape="846.68,535.18 848.30,537.59 848.71,539.90 847.92,542.10 845.93,544.21"/>
    </edge>
    <edge id=":11221812700_5" function="internal">
        <lane id=":11221812700_5_0" index="0" allow="pedestrian delivery bicycle" speed="3.65" length="4.67" shape="846.68,535.18 846.89,536.61 846.57,537.44 845.71,537.68 844.31,537.33"/>
    </edge>
    <edge id=":11221812700_6" function="internal">
        <lane id=":11221812700_6_0" index="0" allow="pedestrian delivery bicycle" speed="4.97" length="5.08" shape="843.94,541.70 844.91,540.68 845.29,539.61 845.09,538.50 844.31,537.33"/>
    </edge>
    <edge id=":11221812700_7" function="internal">
        <lane id=":11221812700_7_0" index="0" allow="pedestrian delivery bicycle" speed="5.56" length="10.19" shape="843.94,541.70 846.39,540.24 848.72,539.83 850.92,540.47 852.99,542.17"/>
    </edge>
    <edge id=":11221812700_8" function="internal">
        <lane id=":11221812700_8_0" index="0" allow="pedestrian delivery bicycle" speed="3.65" length="4.67" shape="843.94,541.70 845.38,541.58 846.19,541.96 846.38,542.84 845.93,544.21"/>
    </edge>
    <edge id=":11221812701_0" function="internal">
        <lane id=":11221812701_0_0" index="0" allow="pedestrian delivery bicycle" speed="3.65" length="4.67" shape="719.95,644.03 718.51,644.15 717.70,643.77 717.52,642.89 717.96,641.52"/>
    </edge>
    <edge id=":11221814852_0" function="internal">
        <lane id=":11221814852_0_0" index="0" disallow="tram rail_urban rail rail_electric rail_fast ship container cable_car subway aircraft wheelchair scooter drone" speed="7.93" length="10.39" shape="939.52,771.66 939.13,768.70 938.12,766.37 936.50,764.64 934.27,763.52"/>
    </edge>
    <edge id=":11221814852_1" function="internal">
        <lane id=":11221814852_1_0" index="0" disallow="tram rail_urban rail rail_electric rail_fast ship container cable_car subway aircraft wheelchair scooter drone" speed="7.65" length="15.16" shape="939.52,771.66 940.02,767.38 941.79,764.62 944.82,763.38 949.12,763.66"/>
    </edge>
    <edge id=":11221814852_2" function="internal">
        <lane id=":11221814852_2_0" index="0" disallow="tram rail_urban rail rail_electric rail_fast ship container cable_car subway aircraft wheelchair scooter drone" speed="3.65" length="4.67" shape="939.52,771.66 940.29,770.44 941.08,770.02 941.89,770.40 942.71,771.58"/>
    </edge>
    <edge id=":11221814852_3" function="internal">
        <lane id=":11221814852_3_0" index="0" disallow="tram rail_urban rail rail_electric rail_fast ship container cable_car subway aircraft wheelchair scooter drone" speed="6.06" length="9.07" shape="948.46,766.79 945.89,766.63 944.08,767.37 943.02,769.02 942.71,771.58"/>
    </edge>
    <edge id=":11221814852_4" function="internal">
        <lane id=":11221814852_4_0" index="0" disallow="tram rail_urban rail rail_electric rail_fast ship container cable_car subway aircraft wheelchair scooter drone" speed="13.89" length="14.57" shape="948.46,766.79 944.85,766.06 941.31,765.34 937.80,764.53 934.27,763.52"/>
    </edge>
    <edge id=":11221814852_5" function="internal">
        <lane id=":11221814852_5_0" index="0" disallow="tram rail_urban rail rail_electric rail_fast ship container cable_car subway aircraft wheelchair scooter drone" speed="3.65" length="1.44" shape="948.46,766.79 947.45,765.76"/>
    </edge>
    <edge id=":11221814852_9" function="internal">
        <lane id=":11221814852_9_0" index="0" disallow="tram rail_urban rail rail_electric rail_fast ship container cable_car subway aircraft wheelchair scooter drone" speed="3.65" length="3.23" shape="947.45,765.76 947.22,764.90 947.78,764.20 949.12,763.66"/>
    </edge>
    <edge id=":11221814852_6" function="internal">
        <lane id=":11221814852_6_0" index="0" disallow="tram rail_urban rail rail_electric rail_fast ship container cable_car subway aircraft wheelchair scooter drone" speed="13.89" length="14.57" shape="934.93,760.38 938.47,761.39 941.98,762.20 945.51,762.93 949.12,763.66"/>
    </edge>
    <edge id=":11221814852_7" function="internal">
        <lane id=":11221814852_7_0" index="0" disallow="tram rail_urban rail rail_electric rail_fast ship container cable_car subway aircraft wheelchair scooter drone" speed="9.32" length="3.69" shape="934.93,760.38 938.25,761.98"/>
    </edge>
    <edge id=":11221814852_8" function="internal">
        <lane id=":11221814852_8_0" index="0" disallow="tram rail_urban rail rail_electric rail_fast ship container cable_car subway aircraft wheelchair scooter drone" speed="3.66" length="1.45" shape="934.93,760.38 935.94,761.41"/>
    </edge>
    <edge id=":11221814852_10" function="internal">
        <lane id=":11221814852_10_0" index="0" disallow="tram rail_urban rail rail_electric rail_fast ship container cable_car subway aircraft wheelchair scooter drone" speed="9.32" length="10.96" shape="938.25,761.98 940.66,764.38 942.15,767.58 942.71,771.58"/>
    </edge>
    <edge id=":11221814852_11" function="internal">
        <lane id=":11221814852_11_0" index="0" disallow="tram rail_urban rail rail_electric rail_fast ship container cable_car subway aircraft wheelchair scooter drone" speed="3.66" length="3.25" shape="935.94,761.41 936.17,762.28 935.61,762.99 934.27,763.52"/>
    </edge>
    <edge id=":11221814854_0" function="internal">
        <lane id=":11221814854_0_0" index="0" disallow="tram rail_urban rail rail_electric rail_fast ship container cable_car subway aircraft wheelchair scooter drone" speed="3.65" length="4.67" shape="941.88,811.88 940.86,812.91 940.00,813.15 939.29,812.60 938.74,811.27"/>
    </edge>
    <edge id=":11221902049_0" function="internal">
        <lane id=":11221902049_0_0" index="0" disallow="tram rail_urban rail rail_electric rail_fast ship container cable_car subway aircraft wheelchair scooter drone" speed="3.65" length="4.67" shape="958.00,166.78 958.68,165.51 959.44,165.03 960.27,165.35 961.18,166.47"/>
    </edge>
    <edge id=":11221918164_0" function="internal">
        <lane id=":11221918164_0_0" index="0" disallow="tram rail_urban rail rail_electric rail_fast ship container cable_car subway aircraft wheelchair scooter drone" speed="3.65" length="4.67" shape="630.08,238.70 628.88,237.91 628.47,237.11 628.86,236.31 630.06,235.50"/>
    </edge>
    <edge id=":11222045528_0" function="internal">
        <lane id=":11222045528_0_0" index="0" disallow="tram rail_urban rail rail_electric rail_fast ship container cable_car subway aircraft wheelchair scooter drone" speed="22.22" length="9.44" shape="1146.11,480.63 1141.49,472.40"/>
    </edge>
    <edge id=":11222045528_1" function="internal">
        <lane id=":11222045528_1_0" index="0" allow="pedestrian delivery bicycle" speed="6.78" length="3.36" shape="1146.11,480.63 1145.04,477.85 1145.06,477.47"/>
    </edge>
    <edge id=":11222045528_7" function="internal">
        <lane id=":11222045528_7_0" index="0" allow="pedestrian delivery bicycle" speed="6.78" length="7.33" shape="1145.06,477.47 1145.17,475.49 1146.51,473.53 1149.05,471.97"/>
    </edge>
    <edge id=":11222045528_2" function="internal">
        <lane id=":11222045528_2_0" index="0" allow="pedestrian delivery bicycle" speed="4.93" length="5.13" shape="1150.31,474.91 1149.09,475.66 1148.45,476.60 1148.39,477.74 1148.90,479.07"/>
    </edge>
    <edge id=":11222045528_3" function="internal">
        <lane id=":11222045528_3_0" index="0" allow="pedestrian delivery bicycle" speed="7.15" length="10.22" shape="1150.31,474.91 1147.52,475.72 1145.12,475.57 1143.11,474.46 1141.49,472.40"/>
    </edge>
    <edge id=":11222045528_4" function="internal">
        <lane id=":11222045528_4_0" index="0" allow="pedestrian delivery bicycle" speed="3.65" length="4.67" shape="1150.31,474.91 1148.89,474.65 1148.21,474.07 1148.26,473.18 1149.05,471.97"/>
    </edge>
    <edge id=":11222045528_5" function="internal">
        <lane id=":11222045528_5_0" index="0" allow="pedestrian delivery bicycle" speed="5.41" length="5.45" shape="1144.28,470.84 1145.12,471.87 1146.19,472.40 1147.50,472.44 1149.05,471.97"/>
    </edge>
    <edge id=":11222045528_6" function="internal">
        <lane id=":11222045528_6_0" index="0" disallow="tram rail_urban rail rail_electric rail_fast ship container cable_car subway aircraft wheelchair scooter drone" speed="22.22" length="9.44" shape="1144.28,470.84 1148.90,479.07"/>
    </edge>
    <edge id=":11222045533_0" function="internal">
        <lane id=":11222045533_0_0" index="0" disallow="tram rail_urban rail rail_electric rail_fast ship container cable_car subway aircraft wheelchair scooter drone" speed="22.22" length="9.45" shape="1153.25,498.01 1152.70,495.25 1152.44,493.31 1151.97,491.46 1150.78,488.96"/>
    </edge>
    <edge id=":11222045533_1" function="internal">
        <lane id=":11222045533_1_0" index="0" allow="pedestrian delivery bicycle" speed="6.96" length="3.60" shape="1153.25,498.01 1152.98,495.30 1153.24,494.46"/>
    </edge>
    <edge id=":11222045533_7" function="internal">