<?xml version="1.0" encoding="UTF-8"?>

<!-- generated on 2026-03-18 08:29:11 by Eclipse SUMO netconvert Version 1.24.0
<netconvertConfiguration xmlns:xsi="http://www.w3.org/2001/XMLSchema-instance" xsi:noNamespaceSchemaLocation="http://sumo.dlr.de/xsd/netconvertConfiguration.xsd">

    <input>
        <osm-files value="C:\Users\USER\Desktop\road_network_project\signal_phase-1\projects\Kdshc7yx04zcd5QuVj1Y\osm\map.osm.xml"/>
    </input>

    <output>
        <output-file value="C:\Users\USER\Desktop\road_network_project\signal_phase-1\projects\Kdshc7yx04zcd5QuVj1Y\sumo\network.net.xml"/>
    </output>

    <projection>
        <proj.utm value="true"/>
    </projection>

    <processing>
        <geometry.remove value="true"/>
        <roundabouts.guess value="true"/>
    </processing>

    <tls_building>
        <tls.guess value="true"/>
        <tls.default-type value="static"/>
    </tls_building>

    <ramp_guessing>
        <ramps.guess value="true"/>
    </ramp_guessing>

    <junctions>
        <junctions.join value="true"/>
    </junctions>

    <report>
        <verbose value="true"/>
    </report>

</netconvertConfiguration>
-->

<net version="1.20" junctionCornerDetail="5" limitTurnSpeed="5.50" xmlns:xsi="http://www.w3.org/2001/XMLSchema-instance" xsi:noNamespaceSchemaLocation="http://sumo.dlr.de/xsd/net_file.xsd">

    <location netOffset="-713215.01,-941153.60" convBoundary="0.00,0.00,1842.31,2774.59" origBoundary="76.936980,8.509299,76.953703,8.534479" projParameter="+proj=utm +zone=43 +ellps=WGS84 +datum=WGS84 +units=m +no_defs"/>

    <type id="highway.footway" priority="1" numLanes="1" speed="2.78" allow="pedestrian" oneway="1" width="2.00"/>
    <type id="highway.primary" priority="12" numLanes="2" speed="27.78" disallow="tram rail_urban rail rail_electric rail_fast ship container cable_car subway aircraft wheelchair scooter drone" oneway="0"/>
    <type id="highway.residential" priority="3" numLanes="1" speed="13.89" disallow="tram rail_urban rail rail_electric rail_fast ship container cable_car subway aircraft wheelchair scooter drone" oneway="0"/>
    <type id="highway.secondary" priority="11" numLanes="1" speed="27.78" disallow="tram rail_urban rail rail_electric rail_fast ship container cable_car subway aircraft wheelchair scooter drone" oneway="0"/>
    <type id="highway.service" priority="1" numLanes="1" speed="5.56" allow="pedestrian delivery bicycle" oneway="0"/>
    <type id="highway.tertiary" priority="10" numLanes="1" speed="22.22" disallow="tram rail_urban rail rail_electric rail_fast ship container cable_car subway aircraft wheelchair scooter drone" oneway="0"/>

    <edge id=":1016212350_0" function="internal">
        <lane id=":1016212350_0_0" index="0" disallow="tram rail_urban rail rail_electric rail_fast ship container cable_car subway aircraft wheelchair scooter drone" speed="13.89" length="3.68" shape="559.17,1057.56 558.54,1058.32 558.06,1058.80 557.64,1059.31 557.22,1060.18"/>
        <lane id=":1016212350_0_1" index="1" disallow="tram rail_urban rail rail_electric rail_fast ship container cable_car subway aircraft wheelchair scooter drone" speed="13.89" length="3.68" shape="556.57,1055.69 555.81,1056.64 555.24,1057.26 554.75,1057.92 554.24,1059.00"/>
    </edge>
    <edge id=":1016212350_2" function="internal">
        <lane id=":1016212350_2_0" index="0" disallow="tram rail_urban rail rail_electric rail_fast ship container cable_car subway aircraft wheelchair scooter drone" speed="18.81" length="6.06" shape="552.86,1052.05 552.75,1053.83 552.46,1055.02 551.97,1056.17 551.26,1057.83"/>
    </edge>
    <edge id=":10222807261_0" function="internal">
        <lane id=":10222807261_0_0" index="0" disallow="tram rail_urban rail rail_electric rail_fast ship container cable_car subway aircraft wheelchair scooter drone" speed="9.36" length="12.07" shape="1240.87,846.95 1238.55,847.76 1236.47,849.44 1234.64,852.01 1233.05,855.45"/>
    </edge>
    <edge id=":10222807261_1" function="internal">
        <lane id=":10222807261_1_0" index="0" disallow="tram rail_urban rail rail_electric rail_fast ship container cable_car subway aircraft wheelchair scooter drone" speed="13.89" length="15.17" shape="1240.87,846.95 1225.82,848.87"/>
    </edge>
    <edge id=":10222807261_2" function="internal">
        <lane id=":10222807261_2_0" index="0" disallow="tram rail_urban rail rail_electric rail_fast ship container cable_car subway aircraft wheelchair scooter drone" speed="3.65" length="1.44" shape="1240.87,846.95 1239.56,846.34"/>
    </edge>
    <edge id=":10222807261_9" function="internal">
        <lane id=":10222807261_9_0" index="0" disallow="tram rail_urban rail rail_electric rail_fast ship container cable_car subway aircraft wheelchair scooter drone" speed="3.65" length="3.23" shape="1239.56,846.34 1239.05,845.61 1239.32,844.76 1240.39,843.78"/>
    </edge>
    <edge id=":10222807261_3" function="internal">
        <lane id=":10222807261_3_0" index="0" disallow="tram rail_urban rail rail_electric rail_fast ship container cable_car subway aircraft wheelchair scooter drone" speed="13.89" length="15.05" shape="1225.46,845.69 1240.39,843.78"/>
    </edge>
    <edge id=":10222807261_4" function="internal">
        <lane id=":10222807261_4_0" index="0" disallow="tram rail_urban rail rail_electric rail_fast ship container cable_car subway aircraft wheelchair scooter drone" speed="7.43" length="4.69" shape="1225.46,845.69 1230.15,845.80"/>
    </edge>
    <edge id=":10222807261_5" function="internal">
        <lane id=":10222807261_5_0" index="0" disallow="tram rail_urban rail rail_electric rail_fast ship container cable_car subway aircraft wheelchair scooter drone" speed="3.65" length="1.44" shape="1225.46,845.69 1226.74,846.35"/>
    </edge>
    <edge id=":10222807261_10" function="internal">
        <lane id=":10222807261_10_0" index="0" disallow="tram rail_urban rail rail_electric rail_fast ship container cable_car subway aircraft wheelchair scooter drone" speed="7.43" length="11.78" shape="1230.15,845.80 1230.35,845.80 1233.25,847.47 1234.15,850.68 1233.05,855.45"/>
    </edge>
    <edge id=":10222807261_11" function="internal">
        <lane id=":10222807261_11_0" index="0" disallow="tram rail_urban rail rail_electric rail_fast ship container cable_car subway aircraft wheelchair scooter drone" speed="3.65" length="3.23" shape="1226.74,846.35 1227.23,847.10 1226.92,847.94 1225.82,848.87"/>
    </edge>
    <edge id=":10222807261_6" function="internal">
        <lane id=":10222807261_6_0" index="0" disallow="tram rail_urban rail rail_electric rail_fast ship container cable_car subway aircraft wheelchair scooter drone" speed="5.72" length="9.19" shape="1230.06,854.32 1230.67,851.66 1230.17,849.86 1228.55,848.93 1225.82,848.87"/>
    </edge>
    <edge id=":10222807261_7" function="internal">
        <lane id=":10222807261_7_0" index="0" disallow="tram rail_urban rail rail_electric rail_fast ship container cable_car subway aircraft wheelchair scooter drone" speed="10.53" length="15.46" shape="1230.06,854.32 1232.05,850.09 1234.44,846.93 1237.22,844.82 1240.39,843.78"/>
    </edge>
    <edge id=":10222807261_8" function="internal">
        <lane id=":10222807261_8_0" index="0" disallow="tram rail_urban rail rail_electric rail_fast ship container cable_car subway aircraft wheelchair scooter drone" speed="3.65" length="4.67" shape="1230.06,854.32 1231.23,853.48 1232.12,853.39 1232.73,854.05 1233.05,855.45"/>
    </edge>
    <edge id=":10222807265_0" function="internal">
        <lane id=":10222807265_0_0" index="0" disallow="tram rail_urban rail rail_electric rail_fast ship container cable_car subway aircraft wheelchair scooter drone" speed="3.65" length="4.67" shape="1217.39,963.36 1216.65,964.60 1215.87,965.04 1215.05,964.67 1214.20,963.51"/>
    </edge>
    <edge id=":10222807272_0" function="internal">
        <lane id=":10222807272_0_0" index="0" disallow="tram rail_urban rail rail_electric rail_fast ship container cable_car subway aircraft wheelchair scooter drone" speed="3.65" length="4.67" shape="1224.10,996.11 1222.82,996.78 1221.93,996.75 1221.42,996.02 1221.29,994.58"/>
    </edge>
    <edge id=":10222807273_0" function="internal">
        <lane id=":10222807273_0_0" index="0" disallow="tram rail_urban rail rail_electric rail_fast ship container cable_car subway aircraft wheelchair scooter drone" speed="6.32" length="8.27" shape="1231.38,994.51 1229.05,993.65 1227.07,993.60 1225.45,994.36 1224.19,995.94"/>
    </edge>
    <edge id=":10222807273_1" function="internal">
        <lane id=":10222807273_1_0" index="0" disallow="tram rail_urban rail rail_electric rail_fast ship container cable_car subway aircraft wheelchair scooter drone" speed="8.00" length="14.17" shape="1231.38,994.51 1228.20,992.29 1226.49,989.57 1226.26,986.38 1227.50,982.70"/>
    </edge>
    <edge id=":10222807273_2" function="internal">
        <lane id=":10222807273_2_0" index="0" disallow="tram rail_urban rail rail_electric rail_fast ship container cable_car subway aircraft wheelchair scooter drone" speed="3.65" length="4.67" shape="1231.38,994.51 1230.67,993.26 1230.68,992.36 1231.39,991.83 1232.83,991.66"/>
    </edge>
    <edge id=":10222807273_3" function="internal">
        <lane id=":10222807273_3_0" index="0" disallow="tram rail_urban rail rail_electric rail_fast ship container cable_car subway aircraft wheelchair scooter drone" speed="6.51" length="9.02" shape="1230.36,984.14 1229.57,986.48 1229.72,988.52 1230.80,990.24 1232.83,991.66"/>
    </edge>
    <edge id=":10222807273_4" function="internal">
        <lane id=":10222807273_4_0" index="0" disallow="tram rail_urban rail rail_electric rail_fast ship container cable_car subway aircraft wheelchair scooter drone" speed="13.89" length="13.31" shape="1230.36,984.14 1224.19,995.94"/>
    </edge>
    <edge id=":10222807273_5" function="internal">
        <lane id=":10222807273_5_0" index="0" disallow="tram rail_urban rail rail_electric rail_fast ship container cable_car subway aircraft wheelchair scooter drone" speed="3.65" length="1.44" shape="1230.36,984.14 1229.11,984.85"/>
    </edge>
    <edge id=":10222807273_9" function="internal">
        <lane id=":10222807273_9_0" index="0" disallow="tram rail_urban rail rail_electric rail_fast ship container cable_car subway aircraft wheelchair scooter drone" speed="3.65" length="3.23" shape="1229.11,984.85 1228.21,984.85 1227.68,984.13 1227.50,982.70"/>
    </edge>
    <edge id=":10222807273_6" function="internal">
        <lane id=":10222807273_6_0" index="0" disallow="tram rail_urban rail rail_electric rail_fast ship container cable_car subway aircraft wheelchair scooter drone" speed="13.89" length="13.21" shape="1221.38,994.41 1227.50,982.70"/>
    </edge>
    <edge id=":10222807273_7" function="internal">
        <lane id=":10222807273_7_0" index="0" disallow="tram rail_urban rail rail_electric rail_fast ship container cable_car subway aircraft wheelchair scooter drone" speed="7.85" length="3.40" shape="1221.38,994.41 1223.47,991.72"/>
    </edge>
    <edge id=":10222807273_8" function="internal">
        <lane id=":10222807273_8_0" index="0" disallow="tram rail_urban rail rail_electric rail_fast ship container cable_car subway aircraft wheelchair scooter drone" speed="3.65" length="1.44" shape="1221.38,994.41 1222.66,993.73"/>
    </edge>
    <edge id=":10222807273_10" function="internal">
        <lane id=":10222807273_10_0" index="0" disallow="tram rail_urban rail rail_electric rail_fast ship container cable_car subway aircraft wheelchair scooter drone" speed="7.85" length="9.92" shape="1223.47,991.72 1226.07,990.37 1229.19,990.35 1232.83,991.66"/>
    </edge>
    <edge id=":10222807273_11" function="internal">
        <lane id=":10222807273_11_0" index="0" disallow="tram rail_urban rail rail_electric rail_fast ship container cable_car subway aircraft wheelchair scooter drone" speed="3.65" length="3.23" shape="1222.66,993.73 1223.55,993.77 1224.06,994.50 1224.19,995.94"/>
    </edge>
    <edge id=":10308420013_0" function="internal">
        <lane id=":10308420013_0_0" index="0" disallow="tram rail_urban rail rail_electric rail_fast ship container cable_car subway aircraft wheelchair scooter drone" speed="27.78" length="14.47" shape="809.17,1184.33 796.28,1190.90"/>
    </edge>
    <edge id=":10308420013_1" function="internal">
        <lane id=":10308420013_1_0" index="0" disallow="tram rail_urban rail rail_electric rail_fast ship container cable_car subway aircraft wheelchair scooter drone" speed="8.04" length="4.10" shape="809.17,1184.33 805.51,1185.60 805.29,1185.59"/>
    </edge>
    <edge id=":10308420013_2" function="internal">
        <lane id=":10308420013_2_0" index="0" disallow="tram rail_urban rail rail_electric rail_fast ship container cable_car subway aircraft wheelchair scooter drone" speed="3.65" length="1.44" shape="809.17,1184.33 807.74,1184.17"/>
    </edge>
    <edge id=":10308420013_9" function="internal">
        <lane id=":10308420013_9_0" index="0" disallow="tram rail_urban rail rail_electric rail_fast ship container cable_car subway aircraft wheelchair scooter drone" speed="8.04" length="10.15" shape="805.29,1185.59 802.30,1185.39 799.55,1183.70 797.24,1180.53"/>
    </edge>
    <edge id=":10308420013_10" function="internal">
        <lane id=":10308420013_10_0" index="0" disallow="tram rail_urban rail rail_electric rail_fast ship container cable_car subway aircraft wheelchair scooter drone" speed="3.65" length="3.23" shape="807.74,1184.17 807.01,1183.65 807.00,1182.75 807.70,1181.49"/>
    </edge>
    <edge id=":10308420013_3" function="internal">
        <lane id=":10308420013_3_0" index="0" disallow="tram rail_urban rail rail_electric rail_fast ship container cable_car subway aircraft wheelchair scooter drone" speed="6.56" length="9.12" shape="800.07,1179.03 801.55,1181.07 803.31,1182.16 805.36,1182.30 807.70,1181.49"/>
    </edge>
    <edge id=":10308420013_4" function="internal">
        <lane id=":10308420013_4_0" index="0" disallow="tram rail_urban rail rail_electric rail_fast ship container cable_car subway aircraft wheelchair scooter drone" speed="7.96" length="14.28" shape="800.07,1179.03 801.40,1182.73 801.21,1185.94 799.50,1188.66 796.28,1190.90"/>
    </edge>
    <edge id=":10308420013_5" function="internal">
        <lane id=":10308420013_5_0" index="0" disallow="tram rail_urban rail rail_electric rail_fast ship container cable_car subway aircraft wheelchair scooter drone" speed="3.65" length="4.67" shape="800.07,1179.03 799.93,1180.47 799.41,1181.19 798.51,1181.22 797.24,1180.53"/>
    </edge>
    <edge id=":10308420013_6" function="internal">
        <lane id=":10308420013_6_0" index="0" disallow="tram rail_urban rail rail_electric rail_fast ship container cable_car subway aircraft wheelchair scooter drone" speed="6.46" length="9.03" shape="794.85,1188.04 796.89,1186.62 797.97,1184.90 798.09,1182.87 797.24,1180.53"/>
    </edge>
    <edge id=":10308420013_7" function="internal">
        <lane id=":10308420013_7_0" index="0" disallow="tram rail_urban rail rail_electric rail_fast ship container cable_car subway aircraft wheelchair scooter drone" speed="27.78" length="14.42" shape="794.85,1188.04 807.70,1181.49"/>
    </edge>
    <edge id=":10308420013_8" function="internal">
        <lane id=":10308420013_8_0" index="0" disallow="tram rail_urban rail rail_electric rail_fast ship container cable_car subway aircraft wheelchair scooter drone" speed="3.65" length="1.44" shape="794.85,1188.04 796.28,1188.21"/>
    </edge>
    <edge id=":10308420013_11" function="internal">
        <lane id=":10308420013_11_0" index="0" disallow="tram rail_urban rail rail_electric rail_fast ship container cable_car subway aircraft wheelchair scooter drone" speed="3.65" length="3.23" shape="796.28,1188.21 796.99,1188.75 796.99,1189.64 796.28,1190.90"/>
    </edge>
    <edge id=":10542377418_0" function="internal">
        <lane id=":10542377418_0_0" index="0" disallow="tram rail_urban rail rail_electric rail_fast ship container cable_car subway aircraft wheelchair scooter drone" speed="9.43" length="12.37" shape="1050.10,618.99 1046.52,620.62 1043.86,622.49 1042.13,624.58 1041.31,626.91"/>
    </edge>
    <edge id=":10542377418_1" function="internal">
        <lane id=":10542377418_1_0" index="0" disallow="tram rail_urban rail rail_electric rail_fast ship container cable_car subway aircraft wheelchair scooter drone" speed="7.40" length="16.83" shape="1050.10,618.99 1045.17,620.13 1041.94,619.20 1040.42,616.21 1040.61,611.15"/>
    </edge>
    <edge id=":10542377418_2" function="internal">
        <lane id=":10542377418_2_0" index="0" disallow="tram rail_urban rail rail_electric rail_fast ship container cable_car subway aircraft wheelchair scooter drone" speed="3.65" length="4.67" shape="1050.10,618.99 1048.69,618.66 1048.04,618.06 1048.13,617.17 1048.97,616.00"/>
    </edge>
    <edge id=":10542377418_3" function="internal">
        <lane id=":10542377418_3_0" index="0" disallow="tram rail_urban rail rail_electric rail_fast ship container cable_car subway aircraft wheelchair scooter drone" speed="5.66" length="9.24" shape="1043.76,611.69 1043.66,614.47 1044.50,616.11 1046.27,616.62 1048.97,616.00"/>
    </edge>
    <edge id=":10542377418_4" function="internal">
        <lane id=":10542377418_4_0" index="0" disallow="tram rail_urban rail rail_electric rail_fast ship container cable_car subway aircraft wheelchair scooter drone" speed="13.89" length="15.42" shape="1043.76,611.69 1041.31,626.91"/>
    </edge>
    <edge id=":10542377418_5" function="internal">
        <lane id=":10542377418_5_0" index="0" disallow="tram rail_urban rail rail_electric rail_fast ship container cable_car subway aircraft wheelchair scooter drone" speed="3.65" length="1.44" shape="1043.76,611.69 1042.77,612.74"/>
    </edge>
    <edge id=":10542377418_9" function="internal">
        <lane id=":10542377418_9_0" index="0" disallow="tram rail_urban rail rail_electric rail_fast ship container cable_car subway aircraft wheelchair scooter drone" speed="3.65" length="3.23" shape="1042.77,612.74 1041.91,613.00 1041.19,612.47 1040.61,611.15"/>
    </edge>
    <edge id=":10542377418_6" function="internal">
        <lane id=":10542377418_6_0" index="0" disallow="tram rail_urban rail rail_electric rail_fast ship container cable_car subway aircraft wheelchair scooter drone" speed="13.89" length="15.49" shape="1038.14,626.45 1040.61,611.15"/>
    </edge>
    <edge id=":10542377418_7" function="internal">
        <lane id=":10542377418_7_0" index="0" disallow="tram rail_urban rail rail_electric rail_fast ship container cable_car subway aircraft wheelchair scooter drone" speed="10.59" length="3.64" shape="1038.14,626.45 1039.19,623.26 1039.36,623.04"/>
    </edge>
    <edge id=":10542377418_8" function="internal">
        <lane id=":10542377418_8_0" index="0" disallow="tram rail_urban rail rail_electric rail_fast ship container cable_car subway aircraft wheelchair scooter drone" speed="3.65" length="1.44" shape="1038.14,626.45 1039.11,625.38"/>
    </edge>
    <edge id=":10542377418_10" function="internal">
        <lane id=":10542377418_10_0" index="0" disallow="tram rail_urban rail rail_electric rail_fast ship container cable_car subway aircraft wheelchair scooter drone" speed="10.59" length="12.14" shape="1039.36,623.04 1041.35,620.45 1044.61,618.03 1048.97,616.00"/>
    </edge>
    <edge id=":10542377418_11" function="internal">
        <lane id=":10542377418_11_0" index="0" disallow="tram rail_urban rail rail_electric rail_fast ship container cable_car subway aircraft wheelchair scooter drone" speed="3.65" length="3.23" shape="1039.11,625.38 1039.96,625.10 1040.69,625.61 1041.31,626.91"/>
    </edge>
    <edge id=":10542377419_0" function="internal">
        <lane id=":10542377419_0_0" index="0" disallow="tram rail_urban rail rail_electric rail_fast ship container cable_car subway aircraft wheelchair scooter drone" speed="3.65" length="4.67" shape="1068.56,608.65 1069.96,608.97 1070.62,609.58 1070.53,610.47 1069.68,611.64"/>
    </edge>
    <edge id=":10548781950_0" function="internal">
        <lane id=":10548781950_0_0" index="0" disallow="tram rail_urban rail rail_electric rail_fast ship container cable_car subway aircraft wheelchair scooter drone" speed="3.65" length="4.67" shape="586.00,727.00 584.84,726.15 584.47,725.33 584.91,724.55 586.15,723.81"/>
    </edge>
    <edge id=":11036811251_0" function="internal">
        <lane id=":11036811251_0_0" index="0" disallow="tram rail_urban rail rail_electric rail_fast ship container cable_car subway aircraft wheelchair scooter drone" speed="3.65" length="4.67" shape="563.29,657.40 561.95,656.88 561.38,656.19 561.60,655.32 562.60,654.28"/>
    </edge>
    <edge id=":11097590154_0" function="internal">
        <lane id=":11097590154_0_0" index="0" disallow="tram rail_urban rail rail_electric rail_fast ship container cable_car subway aircraft wheelchair scooter drone" speed="6.44" length="9.03" shape="257.02,463.97 256.03,461.69 254.55,460.29 252.58,459.79 250.12,460.17"/>
    </edge>
    <edge id=":11097590154_1" function="internal">
        <lane id=":11097590154_1_0" index="0" disallow="tram rail_urban rail rail_electric rail_fast ship container cable_car subway aircraft wheelchair scooter drone" speed="13.89" length="14.21" shape="257.02,463.97 256.10,460.46 255.33,457.06 254.67,453.65 254.10,450.07"/>
    </edge>
    <edge id=":11097590154_2" function="internal">
        <lane id=":11097590154_2_0" index="0" disallow="tram rail_urban rail rail_electric rail_fast ship container cable_car subway aircraft wheelchair scooter drone" speed="3.65" length="1.44" shape="257.02,463.97 257.47,462.60"/>
    </edge>
    <edge id=":11097590154_9" function="internal">
        <lane id=":11097590154_9_0" index="0" disallow="tram rail_urban rail rail_electric rail_fast ship container cable_car subway aircraft wheelchair scooter drone" speed="3.65" length="3.23" shape="257.47,462.60 258.14,462.00 259.01,462.17 260.10,463.12"/>
    </edge>
    <edge id=":11097590154_3" function="internal">
        <lane id=":11097590154_3_0" index="0" disallow="tram rail_urban rail rail_electric rail_fast ship container cable_car subway aircraft wheelchair scooter drone" speed="13.89" length="13.80" shape="257.27,449.62 257.82,453.14 258.45,456.42 259.20,459.67 260.10,463.12"/>
    </edge>
    <edge id=":11097590154_4" function="internal">
        <lane id=":11097590154_4_0" index="0" disallow="tram rail_urban rail rail_electric rail_fast ship container cable_car subway aircraft wheelchair scooter drone" speed="8.46" length="3.78" shape="257.27,449.62 257.25,453.29 257.21,453.39"/>
    </edge>
    <edge id=":11097590154_5" function="internal">
        <lane id=":11097590154_5_0" index="0" disallow="tram rail_urban rail rail_electric rail_fast ship container cable_car subway aircraft wheelchair scooter drone" speed="3.65" length="1.44" shape="257.27,449.62 256.64,450.92"/>
    </edge>
    <edge id=":11097590154_10" function="internal">
        <lane id=":11097590154_10_0" index="0" disallow="tram rail_urban rail rail_electric rail_fast ship container cable_car subway aircraft wheelchair scooter drone" speed="8.46" length="10.30" shape="257.21,453.39 256.05,456.27 253.68,458.56 250.12,460.17"/>
    </edge>
    <edge id=":11097590154_11" function="internal">
        <lane id=":11097590154_11_0" index="0" disallow="tram rail_urban rail rail_electric rail_fast ship container cable_car subway aircraft wheelchair scooter drone" speed="3.65" length="3.23" shape="256.64,450.92 255.91,451.43 255.06,451.14 254.10,450.07"/>
    </edge>
    <edge id=":11097590154_6" function="internal">
        <lane id=":11097590154_6_0" index="0" disallow="tram rail_urban rail rail_electric rail_fast ship container cable_car subway aircraft wheelchair scooter drone" speed="7.04" length="9.49" shape="249.19,457.11 251.62,456.02 253.25,454.48 254.08,452.50 254.10,450.07"/>
    </edge>
    <edge id=":11097590154_7" function="internal">
        <lane id=":11097590154_7_0" index="0" disallow="tram rail_urban rail rail_electric rail_fast ship container cable_car subway aircraft wheelchair scooter drone" speed="7.95" length="14.30" shape="249.19,457.11 253.08,456.50 256.19,457.31 258.53,459.51 260.10,463.12"/>
    </edge>
    <edge id=":11097590154_8" function="internal">
        <lane id=":11097590154_8_0" index="0" disallow="tram rail_urban rail rail_electric rail_fast ship container cable_car subway aircraft wheelchair scooter drone" speed="3.65" length="4.67" shape="249.19,457.11 250.57,457.52 251.19,458.17 251.04,459.05 250.12,460.17"/>
    </edge>
    <edge id=":11115845501_0" function="internal">
        <lane id=":11115845501_0_0" index="0" disallow="tram rail_urban rail rail_electric rail_fast ship container cable_car subway aircraft wheelchair scooter drone" speed="3.65" length="4.67" shape="385.66,338.99 386.86,339.79 387.26,340.59 386.86,341.39 385.65,342.19"/>
    </edge>
    <edge id=":11121836532_0" function="internal">
        <lane id=":11121836532_0_0" index="0" disallow="tram rail_urban rail rail_electric rail_fast ship container cable_car subway aircraft wheelchair scooter drone" speed="6.54" length="9.82" shape="1169.89,804.74 1166.95,804.67 1164.82,805.45 1163.49,807.07 1162.96,809.53"/>
    </edge>
    <edge id=":11121836532_1" function="internal">
        <lane id=":11121836532_1_0" index="0" disallow="tram rail_urban rail rail_electric rail_fast ship container cable_car subway aircraft wheelchair scooter drone" speed="7.53" length="15.68" shape="1169.89,804.74 1165.54,803.46 1163.14,801.19 1162.71,797.91 1164.23,793.64"/>
    </edge>
    <edge id=":11121836532_2" function="internal">
        <lane id=":11121836532_2_0" index="0" disallow="tram rail_urban rail rail_electric rail_fast ship container cable_car subway aircraft wheelchair scooter drone" speed="3.65" length="4.67" shape="1169.89,804.74 1168.82,803.77 1168.54,802.92 1169.05,802.19 1170.35,801.57"/>
    </edge>
    <edge id=":11121836532_3" function="internal">
        <lane id=":11121836532_3_0" index="0" disallow="tram rail_urban rail rail_electric rail_fast ship container cable_car subway aircraft wheelchair scooter drone" speed="5.90" length="9.11" shape="1167.07,795.13 1166.18,797.61 1166.43,799.51 1167.82,800.83 1170.35,801.57"/>
    </edge>
    <edge id=":11121836532_4" function="internal">
        <lane id=":11121836532_4_0" index="0" disallow="tram rail_urban rail rail_electric rail_fast ship container cable_car subway aircraft wheelchair scooter drone" speed="13.89" length="15.09" shape="1167.07,795.13 1165.48,798.54 1164.22,802.11 1163.37,805.79 1162.96,809.53"/>
    </edge>
    <edge id=":11121836532_5" function="internal">
        <lane id=":11121836532_5_0" index="0" disallow="tram rail_urban rail rail_electric rail_fast ship container cable_car subway aircraft wheelchair scooter drone" speed="3.65" length="1.44" shape="1167.07,795.13 1165.80,795.82"/>
    </edge>
    <edge id=":11121836532_9" function="internal">
        <lane id=":11121836532_9_0" index="0" disallow="tram rail_urban rail rail_electric rail_fast ship container cable_car subway aircraft wheelchair scooter drone" speed="3.65" length="3.23" shape="1165.80,795.82 1164.91,795.80 1164.38,795.07 1164.23,793.64"/>
    </edge>
    <edge id=":11121836532_6" function="internal">
        <lane id=":11121836532_6_0" index="0" disallow="tram rail_urban rail rail_electric rail_fast ship container cable_car subway aircraft wheelchair scooter drone" speed="13.89" length="16.48" shape="1159.76,809.39 1160.23,805.44 1161.21,801.30 1162.59,797.27 1164.23,793.64"/>
    </edge>
    <edge id=":11121836532_7" function="internal">
        <lane id=":11121836532_7_0" index="0" disallow="tram rail_urban rail rail_electric rail_fast ship container cable_car subway aircraft wheelchair scooter drone" speed="8.02" length="4.56" shape="1159.76,809.39 1160.58,805.41 1160.89,805.01"/>
    </edge>
    <edge id=":11121836532_8" function="internal">
        <lane id=":11121836532_8_0" index="0" disallow="tram rail_urban rail rail_electric rail_fast ship container cable_car subway aircraft wheelchair scooter drone" speed="3.65" length="1.44" shape="1159.76,809.39 1160.61,808.22"/>
    </edge>
    <edge id=":11121836532_10" function="internal">
        <lane id=":11121836532_10_0" index="0" disallow="tram rail_urban rail rail_electric rail_fast ship container cable_car subway aircraft wheelchair scooter drone" speed="8.02" length="10.80" shape="1160.89,805.01 1162.61,802.78 1165.87,801.50 1170.35,801.57"/>
    </edge>
    <edge id=":11121836532_11" function="internal">
        <lane id=":11121836532_11_0" index="0" disallow="tram rail_urban rail rail_electric rail_fast ship container cable_car subway aircraft wheelchair scooter drone" speed="3.65" length="3.23" shape="1160.61,808.22 1161.43,807.86 1162.21,808.29 1162.96,809.53"/>
    </edge>
    <edge id=":11187286828_0" function="internal">
        <lane id=":11187286828_0_0" index="0" disallow="tram rail_urban rail rail_electric rail_fast ship container cable_car subway aircraft wheelchair scooter drone" speed="13.89" length="9.98" shape="494.48,1288.23 493.07,1290.89 492.10,1292.72 491.23,1294.58 490.14,1297.39"/>
        <lane id=":11187286828_0_1" index="1" disallow="tram rail_urban rail rail_electric rail_fast ship container cable_car subway aircraft wheelchair scooter drone" speed="13.89" length="9.98" shape="491.63,1286.77 490.26,1289.34 489.31,1291.10 488.45,1292.89 487.39,1295.60"/>
    </edge>
    <edge id=":11187286828_2" function="internal">
        <lane id=":11187286828_2_0" index="0" allow="pedestrian delivery bicycle" speed="6.98" length="8.36" shape="491.63,1286.77 490.21,1289.08 488.69,1290.62 487.08,1291.41 485.38,1291.43"/>
    </edge>
    <edge id=":11187286828_3" function="internal">